/*--------------------------------*- C++ -*----------------------------------*\
  =========                 |
  \\      /  F ield         | OpenFOAM: The Open Source CFD Toolbox
   \\    /   O peration     | Website:  https://openfoam.org
    \\  /    A nd           | Version:  13
     \\/     M anipulation  |
\*---------------------------------------------------------------------------*/
FoamFile
{
    format      binary;
    class       volScalarField;
    location    "0";
    object      p;
}
// * * * * * * * * * * * * * * * * * * * * * * * * * * * * * * * * * * * * * //

dimensions      [0 2 -2 0 0 0 0];

internalField   uniform 0;

boundaryField
{
    open0
    {
        type            zeroGradient;
    }
    open1
    {
        type            zeroGradient;
    }
    open2
    {
        type            zeroGradient;
    }
    open3
    {
        type            zeroGradient;
    }
    symmetry0
    {
        type            symmetry;
    }
    symmetry1
    {
        type            symmetry;
    }
    symmetry2
    {
        type            symmetry;
    }
    symmetry3
    {
        type            symmetry;
    }
    symmetryPlane0
    {
        type            symmetryPlane;
    }
    symmetryPlane1
    {
        type            symmetryPlane;
    }
    symmetryPlane2
    {
        type            symmetryPlane;
    }
    symmetryPlane3
    {
        type            symmetryPlane;
    }
    cyclic0
    {
        type            cyclic;
    }
    cyclic1
    {
        type            cyclic;
    }
    cyclic2
    {
        type            cyclic;
    }
    cyclic3
    {
        type            cyclic;
    }
    nonCouple0
    {
        type            zeroGradient;
    }
    nonCouple1
    {
        type            zeroGradient;
    }
    nonCouple2
    {
        type            zeroGradient;
    }
    nonCouple3
    {
        type            zeroGradient;
    }
    backEmpty0
    {
        type            empty;
    }
    frontEmpty1
    {
        type            empty;
    }
    backWedge0
    {
        type            wedge;
    }
    frontWedge1
    {
        type            wedge;
    }
    walls
    {
        type            zeroGradient;
    }
    slab_on_nonCouple0
    {
        type            nonConformalCyclic;
    }
    slab_on_nonCouple1
    {
        type            nonConformalCyclic;
    }
    wedge_on_nonCouple2
    {
        type            nonConformalCyclic;
    }
    wedge_on_nonCouple3
    {
        type            nonConformalCyclic;
    }
    nonConformalError_on_nonCouple0
    {
        type            nonConformalError;
    }
    nonConformalError_on_nonCouple1
    {
        type            nonConformalError;
    }
    nonConformalError_on_nonCouple2
    {
        type            nonConformalError;
    }
    nonConformalError_on_nonCouple3
    {
        type            nonConformalError;
    }
    procBoundary4to1
    {
        type            processor;
        value           uniform 0;
    }
    procBoundary4to3
    {
        type            processor;
        value           uniform 0;
    }
    procBoundary4to5
    {
        type            processor;
        value           uniform 0;
    }
}


// ************************************************************************* //
