/*--------------------------------*- C++ -*----------------------------------*\
  =========                 |
  \\      /  F ield         | OpenFOAM: The Open Source CFD Toolbox
   \\    /   O peration     | Website:  https://openfoam.org
    \\  /    A nd           | Version:  12
     \\/     M anipulation  |
\*---------------------------------------------------------------------------*/
FoamFile
{
    format      ascii;
    class       volVectorField;
    location    "0";
    object      U;
}
// * * * * * * * * * * * * * * * * * * * * * * * * * * * * * * * * * * * * * //

dimensions      [0 1 -1 0 0 0 0];

internalField   uniform (44.200000000000002842 0 0);

boundaryField
{
    inlet
    {
        type            turbulentInlet;
        fluctuationScale (0.020000000000000000416 0.010000000000000000208 0.010000000000000000208);
        referenceField  uniform (44.200000000000002842 0 0);
        alpha           0.10000000000000000555;
        value           uniform (44.200000000000002842 0 0);
    }
    outlet
    {
        type            pressureInletOutletVelocity;
        value           uniform (0 0 0);
    }
    upperWall
    {
        type            noSlip;
    }
    lowerWall
    {
        type            noSlip;
    }
    frontAndBack
    {
        type            empty;
    }
    procBoundary0to2
    {
        type            processor;
        value           uniform (44.200000000000002842 0 0);
    }
    procBoundary0to3
    {
        type            processor;
        value           uniform (44.200000000000002842 0 0);
    }
}


// ************************************************************************* //
