/*--------------------------------*- C++ -*----------------------------------*\
  =========                 |
  \\      /  F ield         | OpenFOAM: The Open Source CFD Toolbox
   \\    /   O peration     | Website:  https://openfoam.org
    \\  /    A nd           | Version:  13
     \\/     M anipulation  |
\*---------------------------------------------------------------------------*/
FoamFile
{
    format      binary;
    class       dictionary;
    location    "0.03/Lagrangian/kinematicParticle/processorUniform";
    object      injectionSlabSymmetryState;
}
// * * * * * * * * * * * * * * * * * * * * * * * * * * * * * * * * * * * * * //



// ************************************************************************* //
