/*--------------------------------*- C++ -*----------------------------------*\
| =========                 |                                                 |
| \\      /  F ield         | OpenFOAM: The Open Source CFD Toolbox           |
|  \\    /   O peration     | Version:  2412                                  |
|   \\  /    A nd           | Website:  www.openfoam.com                      |
|    \\/     M anipulation  |                                                 |
\*---------------------------------------------------------------------------*/
FoamFile
{
    version     2.0;
    format      ascii;
    arch        "LSB;label=64;scalar=64";
    class       polyBoundaryMesh;
    location    "constant/polyMesh";
    object      boundary;
}
// * * * * * * * * * * * * * * * * * * * * * * * * * * * * * * * * * * * * * //

6
(
    zeroSizedPatch
    {
        type            wall;
        inGroups        1(wall);
        nFaces          0;
        startFace       242;
    }
    movingWall
    {
        type            wall;
        inGroups        1(wall);
        nFaces          0;
        startFace       242;
    }
    fixedWalls
    {
        type            wall;
        inGroups        1(wall);
        nFaces          24;
        startFace       242;
    }
    frontAndBack
    {
        type            empty;
        inGroups        1(empty);
        nFaces          266;
        startFace       266;
    }
    procBoundary1to0
    {
        type            processor;
        inGroups        1(processor);
        nFaces          10;
        startFace       532;
        matchTolerance  0.0001;
        transform       unknown;
        myProcNo        1;
        neighbProcNo    0;
    }
    procBoundary1to2
    {
        type            processor;
        inGroups        1(processor);
        nFaces          14;
        startFace       542;
        matchTolerance  0.0001;
        transform       unknown;
        myProcNo        1;
        neighbProcNo    2;
    }
)

// ************************************************************************* //
