/*--------------------------------*- C++ -*----------------------------------*\
  =========                 |
  \\      /  F ield         | OpenFOAM: The Open Source CFD Toolbox
   \\    /   O peration     | Website:  https://openfoam.org
    \\  /    A nd           | Version:  12
     \\/     M anipulation  |
\*---------------------------------------------------------------------------*/
FoamFile
{
    format      ascii;
    class       polyBoundaryMesh;
    location    "constant/polyMesh";
    object      boundary;
}
// * * * * * * * * * * * * * * * * * * * * * * * * * * * * * * * * * * * * * //

7
(
    inlet
    {
        type            patch;
        nFaces          2;
        startFace       281664;
    }
    outlet
    {
        type            patch;
        nFaces          144;
        startFace       281666;
    }
    upperWall
    {
        type            wall;
        inGroups        List<word> 1(wall);
        nFaces          2331;
        startFace       281810;
    }
    lowerWall
    {
        type            wall;
        inGroups        List<word> 1(wall);
        nFaces          0;
        startFace       284141;
    }
    frontAndBack
    {
        type            empty;
        inGroups        List<word> 1(empty);
        nFaces          71346;
        startFace       284141;
    }
    procBoundary3to0
    {
        type            processor;
        inGroups        List<word> 1(processor);
        nFaces          2367;
        startFace       355487;
        matchTolerance  0.00010000000000000000479;
        myProcNo        3;
        neighbProcNo    0;
    }
    procBoundary3to2
    {
        type            processor;
        inGroups        List<word> 1(processor);
        nFaces          1828;
        startFace       357854;
        matchTolerance  0.00010000000000000000479;
        myProcNo        3;
        neighbProcNo    2;
    }
)

// ************************************************************************* //
