/*--------------------------------*- C++ -*----------------------------------*\
  =========                 |
  \\      /  F ield         | OpenFOAM: The Open Source CFD Toolbox
   \\    /   O peration     | Website:  https://openfoam.org
    \\  /    A nd           | Version:  12
     \\/     M anipulation  |
\*---------------------------------------------------------------------------*/
FoamFile
{
    format      ascii;
    class       polyBoundaryMesh;
    location    "constant/polyMesh";
    object      boundary;
}
// * * * * * * * * * * * * * * * * * * * * * * * * * * * * * * * * * * * * * //

7
(
    inlet
    {
        type            patch;
        nFaces          139;
        startFace       200132;
    }
    outlet
    {
        type            patch;
        nFaces          0;
        startFace       200271;
    }
    upperWall
    {
        type            wall;
        inGroups        List<word> 1(wall);
        nFaces          1509;
        startFace       200271;
    }
    lowerWall
    {
        type            wall;
        inGroups        List<word> 1(wall);
        nFaces          0;
        startFace       201780;
    }
    frontAndBack
    {
        type            empty;
        inGroups        List<word> 1(empty);
        nFaces          50556;
        startFace       201780;
    }
    procBoundary2to0
    {
        type            processor;
        inGroups        List<word> 1(processor);
        nFaces          1476;
        startFace       252336;
        matchTolerance  0.00010000000000000000479;
        myProcNo        2;
        neighbProcNo    0;
    }
    procBoundary2to3
    {
        type            processor;
        inGroups        List<word> 1(processor);
        nFaces          1828;
        startFace       253812;
        matchTolerance  0.00010000000000000000479;
        myProcNo        2;
        neighbProcNo    3;
    }
)

// ************************************************************************* //
