/*--------------------------------*- C++ -*----------------------------------*\
  =========                 |
  \\      /  F ield         | OpenFOAM: The Open Source CFD Toolbox
   \\    /   O peration     | Website:  https://openfoam.org
    \\  /    A nd           | Version:  13
     \\/     M anipulation  |
\*---------------------------------------------------------------------------*/
FoamFile
{
    format      binary;
    class       dictionary;
    location    "0.05/Lagrangian/particle/uniform";
    object      patchInjectionState;
}
// * * * * * * * * * * * * * * * * * * * * * * * * * * * * * * * * * * * * * //

numberDeferred  6.82121e-13;
globalRndGen    75779373274910;
localRndGen     75779373274910;


// ************************************************************************* //
