/*--------------------------------*- C++ -*----------------------------------*\
  =========                 |
  \\      /  F ield         | OpenFOAM: The Open Source CFD Toolbox
   \\    /   O peration     | Website:  https://openfoam.org
    \\  /    A nd           | Version:  12
     \\/     M anipulation  |
\*---------------------------------------------------------------------------*/
FoamFile
{
    format      ascii;
    class       polyBoundaryMesh;
    location    "constant/polyMesh";
    object      boundary;
}
// * * * * * * * * * * * * * * * * * * * * * * * * * * * * * * * * * * * * * //

7
(
    inlet
    {
        type            patch;
        nFaces          165;
        startFace       721266;
    }
    outlet
    {
        type            patch;
        nFaces          243;
        startFace       721431;
    }
    upperWall
    {
        type            wall;
        inGroups        List<word> 1(wall);
        nFaces          0;
        startFace       721674;
    }
    lowerWall
    {
        type            wall;
        inGroups        List<word> 1(wall);
        nFaces          3921;
        startFace       721674;
    }
    frontAndBack
    {
        type            empty;
        inGroups        List<word> 1(empty);
        nFaces          181338;
        startFace       725595;
    }
    procBoundary0to2
    {
        type            processor;
        inGroups        List<word> 1(processor);
        nFaces          1476;
        startFace       906933;
        matchTolerance  0.00010000000000000000479;
        myProcNo        0;
        neighbProcNo    2;
    }
    procBoundary0to3
    {
        type            processor;
        inGroups        List<word> 1(processor);
        nFaces          2367;
        startFace       908409;
        matchTolerance  0.00010000000000000000479;
        myProcNo        0;
        neighbProcNo    3;
    }
)

// ************************************************************************* //
