/*--------------------------------*- C++ -*----------------------------------*\
  =========                 |
  \\      /  F ield         | OpenFOAM: The Open Source CFD Toolbox
   \\    /   O peration     | Website:  https://openfoam.org
    \\  /    A nd           | Version:  13
     \\/     M anipulation  |
\*---------------------------------------------------------------------------*/
FoamFile
{
    format      binary;
    class       polyBoundaryMesh;
    location    "constant/polyMesh";
    object      boundary;
}
// * * * * * * * * * * * * * * * * * * * * * * * * * * * * * * * * * * * * * //

42
(
    open0
    {
        type            patch;
        inGroups        List<word> 1(open);
        nFaces          0;
        startFace       599;
    }
    open1
    {
        type            patch;
        inGroups        List<word> 1(open);
        nFaces          0;
        startFace       599;
    }
    open2
    {
        type            patch;
        inGroups        List<word> 1(open);
        nFaces          0;
        startFace       599;
    }
    open3
    {
        type            patch;
        inGroups        List<word> 1(open);
        nFaces          0;
        startFace       599;
    }
    symmetry0
    {
        type            symmetry;
        inGroups        List<word> 1(symmetry);
        nFaces          0;
        startFace       599;
    }
    symmetry1
    {
        type            symmetry;
        inGroups        List<word> 1(symmetry);
        nFaces          0;
        startFace       599;
    }
    symmetry2
    {
        type            symmetry;
        inGroups        List<word> 1(symmetry);
        nFaces          0;
        startFace       599;
    }
    symmetry3
    {
        type            symmetry;
        inGroups        List<word> 1(symmetry);
        nFaces          0;
        startFace       599;
    }
    symmetryPlane0
    {
        type            symmetryPlane;
        inGroups        List<word> 1(symmetryPlane);
        nFaces          0;
        startFace       599;
    }
    symmetryPlane1
    {
        type            symmetryPlane;
        inGroups        List<word> 1(symmetryPlane);
        nFaces          6;
        startFace       599;
    }
    symmetryPlane2
    {
        type            symmetryPlane;
        inGroups        List<word> 1(symmetryPlane);
        nFaces          6;
        startFace       605;
    }
    symmetryPlane3
    {
        type            symmetryPlane;
        inGroups        List<word> 1(symmetryPlane);
        nFaces          0;
        startFace       611;
    }
    cyclic0
    {
        type            cyclic;
        inGroups        List<word> 1(cyclic);
        nFaces          0;
        startFace       611;
        matchTolerance  0.0001;
        neighbourPatch  cyclic1;
        transformType   translational;
        separation      (-0.1 0 0);
    }
    cyclic1
    {
        type            cyclic;
        inGroups        List<word> 1(cyclic);
        nFaces          0;
        startFace       611;
        matchTolerance  0.0001;
        neighbourPatch  cyclic0;
        transformType   translational;
        separation      (0.1 0 0);
    }
    cyclic2
    {
        type            cyclic;
        inGroups        List<word> 1(cyclic);
        nFaces          0;
        startFace       611;
        matchTolerance  0.0001;
        neighbourPatch  cyclic3;
        transformType   rotational;
        rotationAxis    (-3.893829064534047e-19 0 1);
        rotationCentre  (0.2500000000000001 -0.08522770041400086 0);
        rotationAngle   24.00037697162884;
    }
    cyclic3
    {
        type            cyclic;
        inGroups        List<word> 1(cyclic);
        nFaces          0;
        startFace       611;
        matchTolerance  0.0001;
        neighbourPatch  cyclic2;
        transformType   rotational;
        rotationAxis    (-3.893829064534047e-19 0 1);
        rotationCentre  (0.2500000000000001 -0.08522770041400086 0);
        rotationAngle   -24.00037697162884;
    }
    nonCouple0
    {
        type            wall;
        inGroups        List<word> 
2
(
nonCouple
wall
)
;
        nFaces          0;
        startFace       611;
    }
    nonCouple1
    {
        type            wall;
        inGroups        List<word> 
2
(
nonCouple
wall
)
;
        nFaces          10;
        startFace       611;
    }
    nonCouple2
    {
        type            wall;
        inGroups        List<word> 
2
(
nonCouple
wall
)
;
        nFaces          10;
        startFace       621;
    }
    nonCouple3
    {
        type            wall;
        inGroups        List<word> 
2
(
nonCouple
wall
)
;
        nFaces          0;
        startFace       631;
    }
    backEmpty0
    {
        type            empty;
        inGroups        List<word> 1(empty);
        nFaces          186;
        startFace       631;
    }
    frontEmpty1
    {
        type            empty;
        inGroups        List<word> 1(empty);
        nFaces          186;
        startFace       817;
    }
    backWedge0
    {
        type            wedge;
        inGroups        List<word> 1(wedge);
        nFaces          147;
        startFace       1003;
    }
    frontWedge1
    {
        type            wedge;
        inGroups        List<word> 1(wedge);
        nFaces          147;
        startFace       1150;
    }
    walls
    {
        type            wall;
        inGroups        List<word> 1(wall);
        nFaces          11;
        startFace       1297;
    }
    slab_on_nonCouple0
    {
        type            nonConformalCyclic;
        inGroups        List<word> 1(nonConformalCyclic);
        nFaces          0;
        startFace       1308;
        matchTolerance  0.0001;
        neighbourPatch  slab_on_nonCouple1;
        transformType   translational;
        separation      (-0.1 0 0);
        originalPatch   nonCouple0;
    }
    slab_on_nonCouple1
    {
        type            nonConformalCyclic;
        inGroups        List<word> 1(nonConformalCyclic);
        nFaces          0;
        startFace       1308;
        matchTolerance  0.0001;
        neighbourPatch  slab_on_nonCouple0;
        transformType   translational;
        separation      (0.1 0 0);
        originalPatch   nonCouple1;
    }
    wedge_on_nonCouple2
    {
        type            nonConformalCyclic;
        inGroups        List<word> 1(nonConformalCyclic);
        nFaces          0;
        startFace       1308;
        matchTolerance  0.0001;
        neighbourPatch  wedge_on_nonCouple3;
        transformType   rotational;
        rotationAxis    (0 0 1);
        rotationCentre  (0.25 -0.0852315 0);
        rotationAngle   24;
        originalPatch   nonCouple2;
    }
    wedge_on_nonCouple3
    {
        type            nonConformalCyclic;
        inGroups        List<word> 1(nonConformalCyclic);
        nFaces          0;
        startFace       1308;
        matchTolerance  0.0001;
        neighbourPatch  wedge_on_nonCouple2;
        transformType   rotational;
        rotationAxis    (0 0 1);
        rotationCentre  (0.25 -0.0852315 0);
        rotationAngle   -24;
        originalPatch   nonCouple3;
    }
    nonConformalError_on_nonCouple0
    {
        type            nonConformalError;
        inGroups        List<word> 1(nonConformalError);
        nFaces          0;
        startFace       1308;
        originalPatch   nonCouple0;
    }
    nonConformalError_on_nonCouple1
    {
        type            nonConformalError;
        inGroups        List<word> 1(nonConformalError);
        nFaces          0;
        startFace       1308;
        originalPatch   nonCouple1;
    }
    nonConformalError_on_nonCouple2
    {
        type            nonConformalError;
        inGroups        List<word> 1(nonConformalError);
        nFaces          0;
        startFace       1308;
        originalPatch   nonCouple2;
    }
    nonConformalError_on_nonCouple3
    {
        type            nonConformalError;
        inGroups        List<word> 1(nonConformalError);
        nFaces          0;
        startFace       1308;
        originalPatch   nonCouple3;
    }
    procBoundary1to0
    {
        type            processor;
        inGroups        List<word> 1(processor);
        nFaces          25;
        startFace       1308;
        matchTolerance  0.0001;
        myProcNo        1;
        neighbProcNo    0;
    }
    procBoundary1to0throughcyclic1
    {
        type            processorCyclic;
        inGroups        List<word> 1(processorCyclic);
        nFaces          10;
        startFace       1333;
        matchTolerance  0.0001;
        myProcNo        1;
        neighbProcNo    0;
        referPatch      cyclic1;
    }
    procBoundary1to0throughslab_on_nonCouple1
    {
        type            nonConformalProcessorCyclic;
        inGroups        List<word> 1(nonConformalProcessorCyclic);
        nFaces          0;
        startFace       1343;
        matchTolerance  0.0001;
        myProcNo        1;
        neighbProcNo    0;
        referPatch      slab_on_nonCouple1;
        originalPatch   nonCouple1;
    }
    procBoundary1to2
    {
        type            processor;
        inGroups        List<word> 1(processor);
        nFaces          26;
        startFace       1343;
        matchTolerance  0.0001;
        myProcNo        1;
        neighbProcNo    2;
    }
    procBoundary1to2throughcyclic2
    {
        type            processorCyclic;
        inGroups        List<word> 1(processorCyclic);
        nFaces          10;
        startFace       1369;
        matchTolerance  0.0001;
        myProcNo        1;
        neighbProcNo    2;
        referPatch      cyclic2;
    }
    procBoundary1to2throughwedge_on_nonCouple2
    {
        type            nonConformalProcessorCyclic;
        inGroups        List<word> 1(nonConformalProcessorCyclic);
        nFaces          0;
        startFace       1379;
        matchTolerance  0.0001;
        myProcNo        1;
        neighbProcNo    2;
        referPatch      wedge_on_nonCouple2;
        originalPatch   nonCouple2;
    }
    procBoundary1to3
    {
        type            processor;
        inGroups        List<word> 1(processor);
        nFaces          2;
        startFace       1379;
        matchTolerance  0.0001;
        myProcNo        1;
        neighbProcNo    3;
    }
    procBoundary1to4
    {
        type            processor;
        inGroups        List<word> 1(processor);
        nFaces          15;
        startFace       1381;
        matchTolerance  0.0001;
        myProcNo        1;
        neighbProcNo    4;
    }
    procBoundary1to5
    {
        type            processor;
        inGroups        List<word> 1(processor);
        nFaces          3;
        startFace       1396;
        matchTolerance  0.0001;
        myProcNo        1;
        neighbProcNo    5;
    }
)

// ************************************************************************* //
