/*--------------------------------*- C++ -*----------------------------------*\
  =========                 |
  \\      /  F ield         | OpenFOAM: The Open Source CFD Toolbox
   \\    /   O peration     | Website:  https://openfoam.org
    \\  /    A nd           | Version:  13
     \\/     M anipulation  |
\*---------------------------------------------------------------------------*/
FoamFile
{
    format      binary;
    class       polyBoundaryMesh;
    location    "constant/polyMesh";
    object      boundary;
}
// * * * * * * * * * * * * * * * * * * * * * * * * * * * * * * * * * * * * * //

37
(
    open0
    {
        type            patch;
        inGroups        List<word> 1(open);
        nFaces          0;
        startFace       629;
    }
    open1
    {
        type            patch;
        inGroups        List<word> 1(open);
        nFaces          0;
        startFace       629;
    }
    open2
    {
        type            patch;
        inGroups        List<word> 1(open);
        nFaces          0;
        startFace       629;
    }
    open3
    {
        type            patch;
        inGroups        List<word> 1(open);
        nFaces          0;
        startFace       629;
    }
    symmetry0
    {
        type            symmetry;
        inGroups        List<word> 1(symmetry);
        nFaces          0;
        startFace       629;
    }
    symmetry1
    {
        type            symmetry;
        inGroups        List<word> 1(symmetry);
        nFaces          0;
        startFace       629;
    }
    symmetry2
    {
        type            symmetry;
        inGroups        List<word> 1(symmetry);
        nFaces          0;
        startFace       629;
    }
    symmetry3
    {
        type            symmetry;
        inGroups        List<word> 1(symmetry);
        nFaces          0;
        startFace       629;
    }
    symmetryPlane0
    {
        type            symmetryPlane;
        inGroups        List<word> 1(symmetryPlane);
        nFaces          0;
        startFace       629;
    }
    symmetryPlane1
    {
        type            symmetryPlane;
        inGroups        List<word> 1(symmetryPlane);
        nFaces          0;
        startFace       629;
    }
    symmetryPlane2
    {
        type            symmetryPlane;
        inGroups        List<word> 1(symmetryPlane);
        nFaces          0;
        startFace       629;
    }
    symmetryPlane3
    {
        type            symmetryPlane;
        inGroups        List<word> 1(symmetryPlane);
        nFaces          3;
        startFace       629;
    }
    cyclic0
    {
        type            cyclic;
        inGroups        List<word> 1(cyclic);
        nFaces          0;
        startFace       632;
        matchTolerance  0.0001;
        neighbourPatch  cyclic1;
        transformType   translational;
        separation      (-0.1 0 0);
    }
    cyclic1
    {
        type            cyclic;
        inGroups        List<word> 1(cyclic);
        nFaces          0;
        startFace       632;
        matchTolerance  0.0001;
        neighbourPatch  cyclic0;
        transformType   translational;
        separation      (0.1 0 0);
    }
    cyclic2
    {
        type            cyclic;
        inGroups        List<word> 1(cyclic);
        nFaces          0;
        startFace       632;
        matchTolerance  0.0001;
        neighbourPatch  cyclic3;
        transformType   rotational;
        rotationAxis    (-3.893829064534047e-19 0 1);
        rotationCentre  (0.2500000000000001 -0.08522770041400086 0);
        rotationAngle   24.00037697162884;
    }
    cyclic3
    {
        type            cyclic;
        inGroups        List<word> 1(cyclic);
        nFaces          0;
        startFace       632;
        matchTolerance  0.0001;
        neighbourPatch  cyclic2;
        transformType   rotational;
        rotationAxis    (-3.893829064534047e-19 0 1);
        rotationCentre  (0.2500000000000001 -0.08522770041400086 0);
        rotationAngle   -24.00037697162884;
    }
    nonCouple0
    {
        type            wall;
        inGroups        List<word> 
2
(
nonCouple
wall
)
;
        nFaces          0;
        startFace       632;
    }
    nonCouple1
    {
        type            wall;
        inGroups        List<word> 
2
(
nonCouple
wall
)
;
        nFaces          0;
        startFace       632;
    }
    nonCouple2
    {
        type            wall;
        inGroups        List<word> 
2
(
nonCouple
wall
)
;
        nFaces          0;
        startFace       632;
    }
    nonCouple3
    {
        type            wall;
        inGroups        List<word> 
2
(
nonCouple
wall
)
;
        nFaces          10;
        startFace       632;
    }
    backEmpty0
    {
        type            empty;
        inGroups        List<word> 1(empty);
        nFaces          0;
        startFace       642;
    }
    frontEmpty1
    {
        type            empty;
        inGroups        List<word> 1(empty);
        nFaces          0;
        startFace       642;
    }
    backWedge0
    {
        type            wedge;
        inGroups        List<word> 1(wedge);
        nFaces          334;
        startFace       642;
    }
    frontWedge1
    {
        type            wedge;
        inGroups        List<word> 1(wedge);
        nFaces          334;
        startFace       976;
    }
    walls
    {
        type            wall;
        inGroups        List<word> 1(wall);
        nFaces          16;
        startFace       1310;
    }
    slab_on_nonCouple0
    {
        type            nonConformalCyclic;
        inGroups        List<word> 1(nonConformalCyclic);
        nFaces          0;
        startFace       1326;
        matchTolerance  0.0001;
        neighbourPatch  slab_on_nonCouple1;
        transformType   translational;
        separation      (-0.1 0 0);
        originalPatch   nonCouple0;
    }
    slab_on_nonCouple1
    {
        type            nonConformalCyclic;
        inGroups        List<word> 1(nonConformalCyclic);
        nFaces          0;
        startFace       1326;
        matchTolerance  0.0001;
        neighbourPatch  slab_on_nonCouple0;
        transformType   translational;
        separation      (0.1 0 0);
        originalPatch   nonCouple1;
    }
    wedge_on_nonCouple2
    {
        type            nonConformalCyclic;
        inGroups        List<word> 1(nonConformalCyclic);
        nFaces          0;
        startFace       1326;
        matchTolerance  0.0001;
        neighbourPatch  wedge_on_nonCouple3;
        transformType   rotational;
        rotationAxis    (0 0 1);
        rotationCentre  (0.25 -0.0852315 0);
        rotationAngle   24;
        originalPatch   nonCouple2;
    }
    wedge_on_nonCouple3
    {
        type            nonConformalCyclic;
        inGroups        List<word> 1(nonConformalCyclic);
        nFaces          0;
        startFace       1326;
        matchTolerance  0.0001;
        neighbourPatch  wedge_on_nonCouple2;
        transformType   rotational;
        rotationAxis    (0 0 1);
        rotationCentre  (0.25 -0.0852315 0);
        rotationAngle   -24;
        originalPatch   nonCouple3;
    }
    nonConformalError_on_nonCouple0
    {
        type            nonConformalError;
        inGroups        List<word> 1(nonConformalError);
        nFaces          0;
        startFace       1326;
        originalPatch   nonCouple0;
    }
    nonConformalError_on_nonCouple1
    {
        type            nonConformalError;
        inGroups        List<word> 1(nonConformalError);
        nFaces          0;
        startFace       1326;
        originalPatch   nonCouple1;
    }
    nonConformalError_on_nonCouple2
    {
        type            nonConformalError;
        inGroups        List<word> 1(nonConformalError);
        nFaces          0;
        startFace       1326;
        originalPatch   nonCouple2;
    }
    nonConformalError_on_nonCouple3
    {
        type            nonConformalError;
        inGroups        List<word> 1(nonConformalError);
        nFaces          0;
        startFace       1326;
        originalPatch   nonCouple3;
    }
    procBoundary2to1
    {
        type            processor;
        inGroups        List<word> 1(processor);
        nFaces          26;
        startFace       1326;
        matchTolerance  0.0001;
        myProcNo        2;
        neighbProcNo    1;
    }
    procBoundary2to1throughcyclic3
    {
        type            processorCyclic;
        inGroups        List<word> 1(processorCyclic);
        nFaces          10;
        startFace       1352;
        matchTolerance  0.0001;
        myProcNo        2;
        neighbProcNo    1;
        referPatch      cyclic3;
    }
    procBoundary2to1throughwedge_on_nonCouple3
    {
        type            nonConformalProcessorCyclic;
        inGroups        List<word> 1(nonConformalProcessorCyclic);
        nFaces          0;
        startFace       1362;
        matchTolerance  0.0001;
        myProcNo        2;
        neighbProcNo    1;
        referPatch      wedge_on_nonCouple3;
        originalPatch   nonCouple3;
    }
    procBoundary2to5
    {
        type            processor;
        inGroups        List<word> 1(processor);
        nFaces          13;
        startFace       1362;
        matchTolerance  0.0001;
        myProcNo        2;
        neighbProcNo    5;
    }
)

// ************************************************************************* //
